#!/sbin/sh

TMPDIR=/dev/tmp
MOUNTPATH=/dev/magisk_img

# Default permissions
umask 022

# Initial cleanup
rm -rf $TMPDIR 2>/dev/null
mkdir -p $TMPDIR

# echo before loading util_functions
ui_print() { echo "$1"; }

require_new_magisk() {
  ui_print "***********************************"
  ui_print " Please install the latest Magisk! "
  ui_print "***********************************"
  exit 1
}

imageless_magisk() {
  [ $MAGISK_VER_CODE -gt 18100 ]
  return $?
}

##########################################################################################
# Environment
##########################################################################################

OUTFD=$2
ZIPFILE=$3

mount /data 2>/dev/null

# Load utility functions
if [ -f /data/adb/magisk/util_functions.sh ]; then
  . /data/adb/magisk/util_functions.sh
  NVBASE=/data/adb
else
  require_new_magisk
fi

# Preperation for flashable zips
setup_flashable

# Mount partitions
mount_partitions

# Detect version and architecture
api_level_arch_detect

# Setup busybox and binaries
$BOOTMODE && boot_actions || recovery_actions

##########################################################################################
# Preparation
##########################################################################################

# Extract common files
unzip -oj "$ZIPFILE" module.prop install.sh uninstall.sh 'common/*' -d $TMPDIR >&2

[ ! -f $TMPDIR/install.sh ] && abort "! Unable to extract zip file!"
# Load install script
. $TMPDIR/install.sh

if imageless_magisk; then
  $BOOTMODE && MODDIRNAME=modules_update || MODDIRNAME=modules
  MODULEROOT=$NVBASE/$MODDIRNAME
else
  $BOOTMODE && IMGNAME=magisk_merge.img || IMGNAME=magisk.img
  IMG=$NVBASE/$IMGNAME
  request_zip_size_check "$ZIPFILE"
  mount_magisk_img
  MODULEROOT=$MOUNTPATH
fi

MODID=$(grep_prop id $TMPDIR/module.prop)
MODPATH=$MODULEROOT/$MODID

print_modname

ui_print "******************************"
ui_print "Powered by Magisk (@topjohnwu)"
ui_print "******************************"

##########################################################################################
# Install
##########################################################################################

# Create mod paths
rm -rf $MODPATH 2>/dev/null
mkdir -p $MODPATH

on_install

# Remove placeholder
rm -f $MODPATH/system/placeholder 2>/dev/null

# Custom uninstaller
[ -f $TMPDIR/uninstall.sh ] && cp -af $TMPDIR/uninstall.sh $MODPATH/uninstall.sh

# Auto Mount
if imageless_magisk; then
  $SKIPMOUNT && touch $MODPATH/skip_mount
else
  $SKIPMOUNT || touch $MODPATH/auto_mount
fi

# prop files
$PROPFILE && cp -af $TMPDIR/system.prop $MODPATH/system.prop

# Module info
cp -af $TMPDIR/module.prop $MODPATH/module.prop
if $BOOTMODE; then
  # Update info for Magisk Manager
  if imageless_magisk; then
    mktouch $NVBASE/modules/$MODID/update
    cp -af $TMPDIR/module.prop $NVBASE/modules/$MODID/module.prop
  else
    mktouch /sbin/.magisk/img/$MODID/update
    cp -af $TMPDIR/module.prop /sbin/.magisk/img/$MODID/module.prop
  fi
fi

# post-fs-data mode scripts
$POSTFSDATA && cp -af $TMPDIR/post-fs-data.sh $MODPATH/post-fs-data.sh

# service mode scripts
$LATESTARTSERVICE && cp -af $TMPDIR/service.sh $MODPATH/service.sh

# Handle replace folders
for TARGET in $REPLACE; do
  mktouch $MODPATH$TARGET/.replace
done

ui_print "- Setting permissions"
set_permissions

##########################################################################################
# Finalizing
##########################################################################################

cd /
imageless_magisk || unmount_magisk_img
$BOOTMODE || recovery_cleanup
rm -rf $TMPDIR $MOUNTPATH

ui_print "- Done"
ui_print "- Uperf安装完成!"
ui_print "- 开始选择性安装系统修改部分"
magisk --install-module /data/adb/modules_update/uperf/Module-EnhanceUperf.zip
cp -r $TMPDIR/common/system.prop $TMPDIR/system.prop
cp -r $TMPDIR/common/post-fs-data.sh $TMPDIR/post-fs-data.sh
cp -r $TMPDIR/common/service.sh $TMPDIR/service.sh
# 提醒救砖
ui_print "
- 启动模块的情况下只出现一次自动重启可以不用担心
- 为关闭部分限制的正常情况,
- 修改系统有卡开机或者总是自动重启风险
- 必须使用有效救砖模块,
- 或者刷入可以自动解密Data的recovery(数量极少，特别是安卓12),
- 在rec→高级→文件管理→data→adb→modules
- 删除对应的$id文件夹，不会就自行百度
- K40G的可以加群378033245询问
- 提交问题也可以在上面K40G的群、酷安私信、Gitee里问（建议）
- 要附上打包的/sdcard/yc/uperf文件夹
- 并注明机型、MIUI版本，发生时间，发生场景
"
exit 0
